LTspice 24.0.12 for Windows
Circuit: * D:\Softwares\LT Spice\Additional libraries\cascode current mirror.asc
Start Time: Fri Dec  6 12:58:05 2024
Ignoring BSIM parameter XL
Ignoring BSIM parameter XW
solver = Normal
Maximum thread count: 12
tnom = 27
temp = 27
method = modified trap
WARNING: Node N005 is floating.
WARNING: Node N007 is floating.
WARNING: Node N004 is floating.
WARNING: Node N006 is floating.

WARNING: Less than two connections to node n005.  This node is used by m3.
WARNING: Less than two connections to node n007.  This node is used by m2.
WARNING: Less than two connections to node n004.  This node is used by m4.
WARNING: Less than two connections to node n006.  This node is used by m1.
Warning: Pd = 0 is less than W.
Warning: Ps = 0 is less than W.
Total elapsed time: 0.457 seconds.

