LTspice 24.0.12 for Windows
Circuit: * D:\Softwares\LT Spice\Additional libraries\Current mirror.asc
Start Time: Fri Dec  6 12:46:36 2024
Ignoring BSIM parameter XL
Ignoring BSIM parameter XW
solver = Normal
Maximum thread count: 12
tnom = 27
temp = 27
method = modified trap
WARNING: Node N003 is floating.
WARNING: Node N002 is floating.

WARNING: Less than two connections to node n003.  This node is used by m1.
WARNING: Less than two connections to node n002.  This node is used by m0.
Warning: Pd = 0 is less than W.
Warning: Ps = 0 is less than W.
Total elapsed time: 0.340 seconds.

